
 OpenBabel05082219473D

 57 57  0  0  0  0  0  0  0  0999 V2000
    0.9786    0.2992   -0.2777 C   0  0  0  0  0  0  0  0  0  0  0  0
    2.4916    0.1735   -0.2270 C   0  0  0  0  0  0  0  0  0  0  0  0
    2.9923   -0.8699   -1.2241 C   0  0  0  0  0  0  0  0  0  0  0  0
    4.5123   -0.9898   -1.1752 C   0  0  0  0  0  0  0  0  0  0  0  0
    5.0220   -2.0320   -2.1752 C   0  0  0  0  0  0  0  0  0  0  0  0
    6.5311   -2.1319   -2.1139 C   0  0  0  0  0  0  0  0  0  0  0  0
    7.2492   -1.2767   -2.9734 C   0  0  0  0  0  0  0  0  0  0  0  0
    8.6381   -1.2283   -2.9429 C   0  0  0  0  0  0  0  0  0  0  0  0
    9.3034   -0.3803   -3.7878 O   0  0  0  0  0  0  0  0  0  0  0  0
    9.3627   -2.0219   -2.0565 C   0  0  0  0  0  0  0  0  0  0  0  0
   10.8689   -1.9381   -2.0091 C   0  0  0  0  0  0  0  0  0  0  0  0
   11.5372   -2.8810   -2.9758 C   0  0  0  0  0  0  0  0  0  0  0  0
   12.4832   -3.8069   -2.7169 C   0  0  0  0  0  0  0  0  0  0  0  0
   13.0459   -4.0562   -1.3409 C   0  0  0  0  0  0  0  0  0  0  0  0
   12.9934   -4.6579   -3.8733 C   0  0  0  0  0  0  0  0  0  0  0  0
   14.0550   -5.6923   -3.4857 C   0  0  0  0  0  0  0  0  0  0  0  0
   14.5670   -6.5338   -4.6230 C   0  0  0  0  0  0  0  0  0  0  0  0
   15.4987   -7.4958   -4.4695 C   0  0  0  0  0  0  0  0  0  0  0  0
   16.1327   -7.8368   -3.1434 C   0  0  0  0  0  0  0  0  0  0  0  0
   15.9790   -8.3226   -5.6251 C   0  0  0  0  0  0  0  0  0  0  0  0
    8.6487   -2.9023   -1.2206 C   0  0  0  0  0  0  0  0  0  0  0  0
    9.3948   -3.6971   -0.3748 O   0  0  0  0  0  0  0  0  0  0  0  0
    7.2307   -2.9768   -1.2154 C   0  0  0  0  0  0  0  0  0  0  0  0
    6.5432   -3.9388   -0.2495 C   0  0  0  0  0  0  0  0  0  0  0  0
    7.3019   -4.8210    0.2809 O   0  0  0  0  0  0  0  0  0  0  0  0
    5.3059   -3.8084   -0.0061 O   0  5  0  0  0  0  0  0  0  0  0  0
    0.6361    1.0538    0.4368 H   0  0  0  0  0  0  0  0  0  0  0  0
    0.4993   -0.6521   -0.0258 H   0  0  0  0  0  0  0  0  0  0  0  0
    0.6448    0.5986   -1.2764 H   0  0  0  0  0  0  0  0  0  0  0  0
    2.7980   -0.1029    0.7888 H   0  0  0  0  0  0  0  0  0  0  0  0
    2.9430    1.1480   -0.4476 H   0  0  0  0  0  0  0  0  0  0  0  0
    2.6791   -0.5913   -2.2375 H   0  0  0  0  0  0  0  0  0  0  0  0
    2.5395   -1.8429   -0.9992 H   0  0  0  0  0  0  0  0  0  0  0  0
    4.8280   -1.2459   -0.1568 H   0  0  0  0  0  0  0  0  0  0  0  0
    4.9622   -0.0131   -1.3983 H   0  0  0  0  0  0  0  0  0  0  0  0
    4.7244   -1.7295   -3.1890 H   0  0  0  0  0  0  0  0  0  0  0  0
    4.5470   -3.0083   -2.0428 H   0  0  0  0  0  0  0  0  0  0  0  0
    6.6984   -0.6353   -3.6546 H   0  0  0  0  0  0  0  0  0  0  0  0
    8.6422    0.1044   -4.3051 H   0  0  0  0  0  0  0  0  0  0  0  0
   11.2003   -2.0666   -0.9760 H   0  0  0  0  0  0  0  0  0  0  0  0
   11.1869   -0.9185   -2.2618 H   0  0  0  0  0  0  0  0  0  0  0  0
   11.1813   -2.7783   -4.0007 H   0  0  0  0  0  0  0  0  0  0  0  0
   12.6391   -3.4042   -0.5673 H   0  0  0  0  0  0  0  0  0  0  0  0
   14.1286   -3.8941   -1.3382 H   0  0  0  0  0  0  0  0  0  0  0  0
   12.8388   -5.0827   -1.0227 H   0  0  0  0  0  0  0  0  0  0  0  0
   13.4121   -3.9921   -4.6396 H   0  0  0  0  0  0  0  0  0  0  0  0
   12.1413   -5.1794   -4.3298 H   0  0  0  0  0  0  0  0  0  0  0  0
   13.6295   -6.3667   -2.7335 H   0  0  0  0  0  0  0  0  0  0  0  0
   14.9115   -5.1673   -3.0464 H   0  0  0  0  0  0  0  0  0  0  0  0
   14.1454   -6.3437   -5.6075 H   0  0  0  0  0  0  0  0  0  0  0  0
   15.7674   -7.2224   -2.3155 H   0  0  0  0  0  0  0  0  0  0  0  0
   17.2163   -7.6933   -3.1970 H   0  0  0  0  0  0  0  0  0  0  0  0
   15.9275   -8.8804   -2.8853 H   0  0  0  0  0  0  0  0  0  0  0  0
   15.4902   -8.0454   -6.5644 H   0  0  0  0  0  0  0  0  0  0  0  0
   15.7755   -9.3830   -5.4421 H   0  0  0  0  0  0  0  0  0  0  0  0
   17.0583   -8.1942   -5.7588 H   0  0  0  0  0  0  0  0  0  0  0  0
    8.7474   -4.3298    0.0430 H   0  0  0  0  0  0  0  0  0  0  0  0
  1  2  1  0  0  0  0
  1 27  1  0  0  0  0
  1 28  1  0  0  0  0
  1 29  1  0  0  0  0
  2  3  1  0  0  0  0
  2 30  1  0  0  0  0
  2 31  1  0  0  0  0
  3  4  1  0  0  0  0
  3 32  1  0  0  0  0
  3 33  1  0  0  0  0
  4  5  1  0  0  0  0
  4 34  1  0  0  0  0
  4 35  1  0  0  0  0
  5  6  1  0  0  0  0
  5 36  1  0  0  0  0
  5 37  1  0  0  0  0
  6  7  2  0  0  0  0
  6 23  1  0  0  0  0
  7  8  1  0  0  0  0
  7 38  1  0  0  0  0
  8  9  1  0  0  0  0
  8 10  2  0  0  0  0
  9 39  1  0  0  0  0
 10 11  1  0  0  0  0
 10 21  1  0  0  0  0
 11 12  1  0  0  0  0
 11 40  1  0  0  0  0
 11 41  1  0  0  0  0
 12 13  2  0  0  0  0
 12 42  1  0  0  0  0
 13 14  1  0  0  0  0
 13 15  1  0  0  0  0
 14 43  1  0  0  0  0
 14 44  1  0  0  0  0
 14 45  1  0  0  0  0
 15 16  1  0  0  0  0
 15 46  1  0  0  0  0
 15 47  1  0  0  0  0
 16 17  1  0  0  0  0
 16 48  1  0  0  0  0
 16 49  1  0  0  0  0
 17 18  2  0  0  0  0
 17 50  1  0  0  0  0
 18 19  1  0  0  0  0
 18 20  1  0  0  0  0
 19 51  1  0  0  0  0
 19 52  1  0  0  0  0
 19 53  1  0  0  0  0
 20 54  1  0  0  0  0
 20 55  1  0  0  0  0
 20 56  1  0  0  0  0
 21 22  1  0  0  0  0
 21 23  2  0  0  0  0
 22 57  1  0  0  0  0
 23 24  1  0  0  0  0
 24 25  2  0  0  0  0
 24 26  1  0  0  0  0
M  CHG  1  26  -1
M  END
$$$$
